720

C		-0.505276		3.182751		5.833035
C		-1.315265		3.971495		6.613678
C		-1.708258		3.503851		7.924497
C		-2.536419		4.283116		8.759207
C		-1.253331		2.230015		8.368241
C		-0.399336		1.452562		7.50797
C		-0.041382		1.928537		6.283859
H		-0.201375		3.673157		4.856265
H		-1.747171		4.979116		6.283215
H		-2.867032		5.291462		8.411549
H		-0.140743		0.420003		7.878523
H		0.532856		1.063231		5.708904
C		-2.918313		3.807985		10.021477
C		-1.635225		1.754884		9.630511
C		-2.463387		2.534149		10.465221
C		-3.772308		4.585438		10.881748
H		-1.304612		0.746538		9.978169
C		-2.856379		2.066506		11.77604
C		-4.130263		4.109463		12.105859
H		-4.030901		5.617997		10.511195
C		-3.666368		2.855249		12.556683
H		-2.424473		1.058884		12.106503
H		-4.7045		4.974769		12.680814
H		-3.970269		2.364843		13.533453
C		-0.505276		-2.855249		5.833035
C		-1.315265		-2.0665050000000003		6.613678
C		-1.708258		-2.534149		7.924497
C		-2.536419		-1.7548840000000006		8.759207
C		-1.253331		-3.8079850000000004		8.368241
C		-0.399336		-4.585438		7.50797
C		-0.041382		-4.109463		6.283859
H		-0.201375		-2.3648430000000005		4.856265
H		-1.747171		-1.058884		6.283215
H		-2.867032		-0.7465380000000001		8.411549
H		-0.140743		-5.617997		7.878523
H		0.532856		-4.974769		5.708904
C		-2.918313		-2.2300150000000003		10.021477
C		-1.635225		-4.283116		9.630511
C		-2.463387		-3.503851		10.465221
C		-3.772308		-1.4525620000000004		10.881748
H		-1.304612		-5.291462		9.978169
C		-2.856379		-3.9714940000000003		11.77604
C		-4.130263		-1.9285370000000004		12.105859
H		-4.030901		-0.42000300000000035		10.511195
C		-3.666368		-3.182751		12.556683
H		-2.424473		-4.979116		12.106503
H		-4.7045		-1.063231		12.680814
H		-3.970269		-3.6731570000000002		13.533453
C		-0.505276		-8.893249		5.833035
C		-1.315265		-8.104505		6.613678
C		-1.708258		-8.572149		7.924497
C		-2.536419		-7.792884000000001		8.759207
C		-1.253331		-9.845985		8.368241
C		-0.399336		-10.623438		7.50797
C		-0.041382		-10.147463		6.283859
H		-0.201375		-8.402843		4.856265
H		-1.747171		-7.096884		6.283215
H		-2.867032		-6.784538		8.411549
H		-0.140743		-11.655997000000001		7.878523
H		0.532856		-11.012769		5.708904
C		-2.918313		-8.268015		10.021477
C		-1.635225		-10.321116		9.630511
C		-2.463387		-9.541851000000001		10.465221
C		-3.772308		-7.490562000000001		10.881748
H		-1.304612		-11.329462000000001		9.978169
C		-2.856379		-10.009494		11.77604
C		-4.130263		-7.966537000000001		12.105859
H		-4.030901		-6.458003000000001		10.511195
C		-3.666368		-9.220751		12.556683
H		-2.424473		-11.017116000000001		12.106503
H		-4.7045		-7.101231		12.680814
H		-3.970269		-9.711157		13.533453
C		-0.505276		-14.931249000000001		5.833035
C		-1.315265		-14.142505		6.613678
C		-1.708258		-14.610149		7.924497
C		-2.536419		-13.830884000000001		8.759207
C		-1.253331		-15.883985000000001		8.368241
C		-0.399336		-16.661438		7.50797
C		-0.041382		-16.185463000000002		6.283859
H		-0.201375		-14.440843000000001		4.856265
H		-1.747171		-13.134884		6.283215
H		-2.867032		-12.822538000000002		8.411549
H		-0.140743		-17.693997		7.878523
H		0.532856		-17.050769000000003		5.708904
C		-2.918313		-14.306015		10.021477
C		-1.635225		-16.359116		9.630511
C		-2.463387		-15.579851000000001		10.465221
C		-3.772308		-13.528562		10.881748
H		-1.304612		-17.367462		9.978169
C		-2.856379		-16.047494		11.77604
C		-4.130263		-14.004537000000001		12.105859
H		-4.030901		-12.496003000000002		10.511195
C		-3.666368		-15.258751		12.556683
H		-2.424473		-17.055116		12.106503
H		-4.7045		-13.139231		12.680814
H		-3.970269		-15.749157		13.533453
C		-0.505276		-20.969249		5.833035
C		-1.315265		-20.180505		6.613678
C		-1.708258		-20.648149		7.924497
C		-2.536419		-19.868884		8.759207
C		-1.253331		-21.921985		8.368241
C		-0.399336		-22.699438		7.50797
C		-0.041382		-22.223463000000002		6.283859
H		-0.201375		-20.478843		4.856265
H		-1.747171		-19.172884		6.283215
H		-2.867032		-18.860538000000002		8.411549
H		-0.140743		-23.731997		7.878523
H		0.532856		-23.088769		5.708904
C		-2.918313		-20.344015000000002		10.021477
C		-1.635225		-22.397116		9.630511
C		-2.463387		-21.617851		10.465221
C		-3.772308		-19.566562		10.881748
H		-1.304612		-23.405462		9.978169
C		-2.856379		-22.085494		11.77604
C		-4.130263		-20.042537000000003		12.105859
H		-4.030901		-18.534003000000002		10.511195
C		-3.666368		-21.296751		12.556683
H		-2.424473		-23.093116000000002		12.106503
H		-4.7045		-19.177231		12.680814
H		-3.970269		-21.787157		13.533453
C		-0.505276		-27.007249		5.833035
C		-1.315265		-26.218505		6.613678
C		-1.708258		-26.686149		7.924497
C		-2.536419		-25.906884		8.759207
C		-1.253331		-27.959985000000003		8.368241
C		-0.399336		-28.737438		7.50797
C		-0.041382		-28.261463000000003		6.283859
H		-0.201375		-26.516843		4.856265
H		-1.747171		-25.210884		6.283215
H		-2.867032		-24.898538000000002		8.411549
H		-0.140743		-29.769997		7.878523
H		0.532856		-29.126769000000003		5.708904
C		-2.918313		-26.382015000000003		10.021477
C		-1.635225		-28.435116		9.630511
C		-2.463387		-27.655851000000002		10.465221
C		-3.772308		-25.604562		10.881748
H		-1.304612		-29.443462		9.978169
C		-2.856379		-28.123494		11.77604
C		-4.130263		-26.080537		12.105859
H		-4.030901		-24.572003000000002		10.511195
C		-3.666368		-27.334751		12.556683
H		-2.424473		-29.131116000000002		12.106503
H		-4.7045		-25.215231000000003		12.680814
H		-3.970269		-27.825157		13.533453
C		-0.505276		-33.045249		5.833035
C		-1.315265		-32.256505000000004		6.613678
C		-1.708258		-32.724149000000004		7.924497
C		-2.536419		-31.944884000000002		8.759207
C		-1.253331		-33.997985		8.368241
C		-0.399336		-34.775438		7.50797
C		-0.041382		-34.299463		6.283859
H		-0.201375		-32.554843000000005		4.856265
H		-1.747171		-31.248884		6.283215
H		-2.867032		-30.936538000000002		8.411549
H		-0.140743		-35.807997		7.878523
H		0.532856		-35.164769		5.708904
C		-2.918313		-32.420015		10.021477
C		-1.635225		-34.473116000000005		9.630511
C		-2.463387		-33.693851		10.465221
C		-3.772308		-31.642562		10.881748
H		-1.304612		-35.481462		9.978169
C		-2.856379		-34.161494000000005		11.77604
C		-4.130263		-32.118537		12.105859
H		-4.030901		-30.610003000000003		10.511195
C		-3.666368		-33.372751		12.556683
H		-2.424473		-35.169116		12.106503
H		-4.7045		-31.253231		12.680814
H		-3.970269		-33.863157		13.533453
C		-0.505276		-39.083249		5.833035
C		-1.315265		-38.29450500000001		6.613678
C		-1.708258		-38.76214900000001		7.924497
C		-2.536419		-37.982884000000006		8.759207
C		-1.253331		-40.035985000000004		8.368241
C		-0.399336		-40.813438000000005		7.50797
C		-0.041382		-40.33746300000001		6.283859
H		-0.201375		-38.592843		4.856265
H		-1.747171		-37.28688400000001		6.283215
H		-2.867032		-36.974538		8.411549
H		-0.140743		-41.845997000000004		7.878523
H		0.532856		-41.202769		5.708904
C		-2.918313		-38.458015		10.021477
C		-1.635225		-40.51111600000001		9.630511
C		-2.463387		-39.731851000000006		10.465221
C		-3.772308		-37.68056200000001		10.881748
H		-1.304612		-41.519462000000004		9.978169
C		-2.856379		-40.19949400000001		11.77604
C		-4.130263		-38.15653700000001		12.105859
H		-4.030901		-36.648003		10.511195
C		-3.666368		-39.410751000000005		12.556683
H		-2.424473		-41.207116000000006		12.106503
H		-4.7045		-37.291231		12.680814
H		-3.970269		-39.901157000000005		13.533453
C		-0.505276		-45.121249		5.833035
C		-1.315265		-44.332505000000005		6.613678
C		-1.708258		-44.800149000000005		7.924497
C		-2.536419		-44.020884		8.759207
C		-1.253331		-46.073985		8.368241
C		-0.399336		-46.851438		7.50797
C		-0.041382		-46.375463		6.283859
H		-0.201375		-44.630843		4.856265
H		-1.747171		-43.324884000000004		6.283215
H		-2.867032		-43.012538		8.411549
H		-0.140743		-47.883997		7.878523
H		0.532856		-47.240769		5.708904
C		-2.918313		-44.496015		10.021477
C		-1.635225		-46.549116000000005		9.630511
C		-2.463387		-45.769851		10.465221
C		-3.772308		-43.718562000000006		10.881748
H		-1.304612		-47.557462		9.978169
C		-2.856379		-46.237494000000005		11.77604
C		-4.130263		-44.194537000000004		12.105859
H		-4.030901		-42.686003		10.511195
C		-3.666368		-45.448751		12.556683
H		-2.424473		-47.245116		12.106503
H		-4.7045		-43.329231		12.680814
H		-3.970269		-45.939157		13.533453
C		-0.505276		-51.159248999999996		5.833035
C		-1.315265		-50.370505		6.613678
C		-1.708258		-50.838149		7.924497
C		-2.536419		-50.058884		8.759207
C		-1.253331		-52.111985		8.368241
C		-0.399336		-52.889438		7.50797
C		-0.041382		-52.413463		6.283859
H		-0.201375		-50.668842999999995		4.856265
H		-1.747171		-49.362884		6.283215
H		-2.867032		-49.050537999999996		8.411549
H		-0.140743		-53.921997		7.878523
H		0.532856		-53.278769		5.708904
C		-2.918313		-50.534015		10.021477
C		-1.635225		-52.587116		9.630511
C		-2.463387		-51.807851		10.465221
C		-3.772308		-49.756562		10.881748
H		-1.304612		-53.595462		9.978169
C		-2.856379		-52.275494		11.77604
C		-4.130263		-50.232537		12.105859
H		-4.030901		-48.724002999999996		10.511195
C		-3.666368		-51.486751		12.556683
H		-2.424473		-53.283116		12.106503
H		-4.7045		-49.367231		12.680814
H		-3.970269		-51.977157		13.533453
C		-0.505276		-57.197249		5.833035
C		-1.315265		-56.408505000000005		6.613678
C		-1.708258		-56.876149000000005		7.924497
C		-2.536419		-56.096884		8.759207
C		-1.253331		-58.149985		8.368241
C		-0.399336		-58.927438		7.50797
C		-0.041382		-58.451463000000004		6.283859
H		-0.201375		-56.706843000000006		4.856265
H		-1.747171		-55.400884000000005		6.283215
H		-2.867032		-55.088538		8.411549
H		-0.140743		-59.959997		7.878523
H		0.532856		-59.316769		5.708904
C		-2.918313		-56.572015		10.021477
C		-1.635225		-58.625116000000006		9.630511
C		-2.463387		-57.845851		10.465221
C		-3.772308		-55.794562		10.881748
H		-1.304612		-59.633462		9.978169
C		-2.856379		-58.313494000000006		11.77604
C		-4.130263		-56.270537000000004		12.105859
H		-4.030901		-54.762003		10.511195
C		-3.666368		-57.524751		12.556683
H		-2.424473		-59.321116		12.106503
H		-4.7045		-55.405231		12.680814
H		-3.970269		-58.015157		13.533453
C		-0.505276		-63.235249		5.833035
C		-1.315265		-62.44650500000001		6.613678
C		-1.708258		-62.91414900000001		7.924497
C		-2.536419		-62.13488400000001		8.759207
C		-1.253331		-64.18798500000001		8.368241
C		-0.399336		-64.965438		7.50797
C		-0.041382		-64.489463		6.283859
H		-0.201375		-62.744843		4.856265
H		-1.747171		-61.43888400000001		6.283215
H		-2.867032		-61.126538000000004		8.411549
H		-0.140743		-65.99799700000001		7.878523
H		0.532856		-65.354769		5.708904
C		-2.918313		-62.610015000000004		10.021477
C		-1.635225		-64.663116		9.630511
C		-2.463387		-63.88385100000001		10.465221
C		-3.772308		-61.83256200000001		10.881748
H		-1.304612		-65.671462		9.978169
C		-2.856379		-64.351494		11.77604
C		-4.130263		-62.30853700000001		12.105859
H		-4.030901		-60.800003000000004		10.511195
C		-3.666368		-63.562751000000006		12.556683
H		-2.424473		-65.359116		12.106503
H		-4.7045		-61.443231000000004		12.680814
H		-3.970269		-64.05315700000001		13.533453
C		-0.505276		-69.273249		5.833035
C		-1.315265		-68.484505		6.613678
C		-1.708258		-68.952149		7.924497
C		-2.536419		-68.17288400000001		8.759207
C		-1.253331		-70.22598500000001		8.368241
C		-0.399336		-71.003438		7.50797
C		-0.041382		-70.527463		6.283859
H		-0.201375		-68.782843		4.856265
H		-1.747171		-67.476884		6.283215
H		-2.867032		-67.16453800000001		8.411549
H		-0.140743		-72.03599700000001		7.878523
H		0.532856		-71.392769		5.708904
C		-2.918313		-68.648015		10.021477
C		-1.635225		-70.701116		9.630511
C		-2.463387		-69.921851		10.465221
C		-3.772308		-67.870562		10.881748
H		-1.304612		-71.709462		9.978169
C		-2.856379		-70.389494		11.77604
C		-4.130263		-68.346537		12.105859
H		-4.030901		-66.838003		10.511195
C		-3.666368		-69.600751		12.556683
H		-2.424473		-71.397116		12.106503
H		-4.7045		-67.48123100000001		12.680814
H		-3.970269		-70.09115700000001		13.533453
C		-0.505276		-75.311249		5.833035
C		-1.315265		-74.522505		6.613678
C		-1.708258		-74.990149		7.924497
C		-2.536419		-74.210884		8.759207
C		-1.253331		-76.263985		8.368241
C		-0.399336		-77.041438		7.50797
C		-0.041382		-76.565463		6.283859
H		-0.201375		-74.820843		4.856265
H		-1.747171		-73.514884		6.283215
H		-2.867032		-73.202538		8.411549
H		-0.140743		-78.073997		7.878523
H		0.532856		-77.430769		5.708904
C		-2.918313		-74.686015		10.021477
C		-1.635225		-76.739116		9.630511
C		-2.463387		-75.959851		10.465221
C		-3.772308		-73.908562		10.881748
H		-1.304612		-77.747462		9.978169
C		-2.856379		-76.427494		11.77604
C		-4.130263		-74.384537		12.105859
H		-4.030901		-72.876003		10.511195
C		-3.666368		-75.638751		12.556683
H		-2.424473		-77.435116		12.106503
H		-4.7045		-73.519231		12.680814
H		-3.970269		-76.129157		13.533453
C		-0.505276		-81.34924900000001		5.833035
C		-1.315265		-80.560505		6.613678
C		-1.708258		-81.02814900000001		7.924497
C		-2.536419		-80.248884		8.759207
C		-1.253331		-82.30198500000002		8.368241
C		-0.399336		-83.07943800000001		7.50797
C		-0.041382		-82.603463		6.283859
H		-0.201375		-80.85884300000001		4.856265
H		-1.747171		-79.552884		6.283215
H		-2.867032		-79.24053800000002		8.411549
H		-0.140743		-84.11199700000002		7.878523
H		0.532856		-83.46876900000001		5.708904
C		-2.918313		-80.72401500000001		10.021477
C		-1.635225		-82.777116		9.630511
C		-2.463387		-81.99785100000001		10.465221
C		-3.772308		-79.94656200000001		10.881748
H		-1.304612		-83.78546200000001		9.978169
C		-2.856379		-82.465494		11.77604
C		-4.130263		-80.422537		12.105859
H		-4.030901		-78.91400300000001		10.511195
C		-3.666368		-81.67675100000001		12.556683
H		-2.424473		-83.473116		12.106503
H		-4.7045		-79.55723100000002		12.680814
H		-3.970269		-82.16715700000002		13.533453
C		-0.505276		-87.38724900000001		5.833035
C		-1.315265		-86.598505		6.613678
C		-1.708258		-87.06614900000001		7.924497
C		-2.536419		-86.28688400000001		8.759207
C		-1.253331		-88.33998500000001		8.368241
C		-0.399336		-89.117438		7.50797
C		-0.041382		-88.641463		6.283859
H		-0.201375		-86.896843		4.856265
H		-1.747171		-85.590884		6.283215
H		-2.867032		-85.27853800000001		8.411549
H		-0.140743		-90.14999700000001		7.878523
H		0.532856		-89.506769		5.708904
C		-2.918313		-86.762015		10.021477
C		-1.635225		-88.815116		9.630511
C		-2.463387		-88.03585100000001		10.465221
C		-3.772308		-85.98456200000001		10.881748
H		-1.304612		-89.823462		9.978169
C		-2.856379		-88.503494		11.77604
C		-4.130263		-86.460537		12.105859
H		-4.030901		-84.952003		10.511195
C		-3.666368		-87.714751		12.556683
H		-2.424473		-89.511116		12.106503
H		-4.7045		-85.59523100000001		12.680814
H		-3.970269		-88.20515700000001		13.533453
C		-0.505276		-93.42524900000001		5.833035
C		-1.315265		-92.636505		6.613678
C		-1.708258		-93.104149		7.924497
C		-2.536419		-92.324884		8.759207
C		-1.253331		-94.37798500000001		8.368241
C		-0.399336		-95.155438		7.50797
C		-0.041382		-94.679463		6.283859
H		-0.201375		-92.934843		4.856265
H		-1.747171		-91.628884		6.283215
H		-2.867032		-91.31653800000001		8.411549
H		-0.140743		-96.18799700000001		7.878523
H		0.532856		-95.544769		5.708904
C		-2.918313		-92.800015		10.021477
C		-1.635225		-94.853116		9.630511
C		-2.463387		-94.073851		10.465221
C		-3.772308		-92.02256200000001		10.881748
H		-1.304612		-95.861462		9.978169
C		-2.856379		-94.541494		11.77604
C		-4.130263		-92.498537		12.105859
H		-4.030901		-90.990003		10.511195
C		-3.666368		-93.752751		12.556683
H		-2.424473		-95.549116		12.106503
H		-4.7045		-91.63323100000001		12.680814
H		-3.970269		-94.24315700000001		13.533453
C		-0.505276		-99.463249		5.833035
C		-1.315265		-98.674505		6.613678
C		-1.708258		-99.142149		7.924497
C		-2.536419		-98.36288400000001		8.759207
C		-1.253331		-100.415985		8.368241
C		-0.399336		-101.193438		7.50797
C		-0.041382		-100.717463		6.283859
H		-0.201375		-98.972843		4.856265
H		-1.747171		-97.666884		6.283215
H		-2.867032		-97.354538		8.411549
H		-0.140743		-102.225997		7.878523
H		0.532856		-101.582769		5.708904
C		-2.918313		-98.838015		10.021477
C		-1.635225		-100.891116		9.630511
C		-2.463387		-100.111851		10.465221
C		-3.772308		-98.060562		10.881748
H		-1.304612		-101.899462		9.978169
C		-2.856379		-100.579494		11.77604
C		-4.130263		-98.536537		12.105859
H		-4.030901		-97.028003		10.511195
C		-3.666368		-99.790751		12.556683
H		-2.424473		-101.587116		12.106503
H		-4.7045		-97.671231		12.680814
H		-3.970269		-100.28115700000001		13.533453
C		-0.505276		-105.501249		5.833035
C		-1.315265		-104.712505		6.613678
C		-1.708258		-105.180149		7.924497
C		-2.536419		-104.40088399999999		8.759207
C		-1.253331		-106.453985		8.368241
C		-0.399336		-107.231438		7.50797
C		-0.041382		-106.75546299999999		6.283859
H		-0.201375		-105.010843		4.856265
H		-1.747171		-103.70488399999999		6.283215
H		-2.867032		-103.392538		8.411549
H		-0.140743		-108.263997		7.878523
H		0.532856		-107.620769		5.708904
C		-2.918313		-104.876015		10.021477
C		-1.635225		-106.929116		9.630511
C		-2.463387		-106.149851		10.465221
C		-3.772308		-104.098562		10.881748
H		-1.304612		-107.937462		9.978169
C		-2.856379		-106.617494		11.77604
C		-4.130263		-104.57453699999999		12.105859
H		-4.030901		-103.066003		10.511195
C		-3.666368		-105.828751		12.556683
H		-2.424473		-107.62511599999999		12.106503
H		-4.7045		-103.709231		12.680814
H		-3.970269		-106.319157		13.533453
C		-0.505276		-111.53924900000001		5.833035
C		-1.315265		-110.750505		6.613678
C		-1.708258		-111.21814900000001		7.924497
C		-2.536419		-110.438884		8.759207
C		-1.253331		-112.49198500000001		8.368241
C		-0.399336		-113.26943800000001		7.50797
C		-0.041382		-112.793463		6.283859
H		-0.201375		-111.048843		4.856265
H		-1.747171		-109.742884		6.283215
H		-2.867032		-109.43053800000001		8.411549
H		-0.140743		-114.30199700000001		7.878523
H		0.532856		-113.658769		5.708904
C		-2.918313		-110.914015		10.021477
C		-1.635225		-112.967116		9.630511
C		-2.463387		-112.18785100000001		10.465221
C		-3.772308		-110.13656200000001		10.881748
H		-1.304612		-113.97546200000001		9.978169
C		-2.856379		-112.655494		11.77604
C		-4.130263		-110.612537		12.105859
H		-4.030901		-109.104003		10.511195
C		-3.666368		-111.86675100000001		12.556683
H		-2.424473		-113.663116		12.106503
H		-4.7045		-109.74723100000001		12.680814
H		-3.970269		-112.35715700000002		13.533453
C		-0.505276		-117.57724900000001		5.833035
C		-1.315265		-116.788505		6.613678
C		-1.708258		-117.25614900000001		7.924497
C		-2.536419		-116.47688400000001		8.759207
C		-1.253331		-118.52998500000001		8.368241
C		-0.399336		-119.307438		7.50797
C		-0.041382		-118.831463		6.283859
H		-0.201375		-117.086843		4.856265
H		-1.747171		-115.780884		6.283215
H		-2.867032		-115.46853800000001		8.411549
H		-0.140743		-120.33999700000001		7.878523
H		0.532856		-119.696769		5.708904
C		-2.918313		-116.952015		10.021477
C		-1.635225		-119.005116		9.630511
C		-2.463387		-118.225851		10.465221
C		-3.772308		-116.17456200000001		10.881748
H		-1.304612		-120.013462		9.978169
C		-2.856379		-118.693494		11.77604
C		-4.130263		-116.650537		12.105859
H		-4.030901		-115.142003		10.511195
C		-3.666368		-117.904751		12.556683
H		-2.424473		-119.701116		12.106503
H		-4.7045		-115.78523100000001		12.680814
H		-3.970269		-118.39515700000001		13.533453
C		-0.505276		-123.615249		5.833035
C		-1.315265		-122.826505		6.613678
C		-1.708258		-123.294149		7.924497
C		-2.536419		-122.514884		8.759207
C		-1.253331		-124.56798500000001		8.368241
C		-0.399336		-125.345438		7.50797
C		-0.041382		-124.869463		6.283859
H		-0.201375		-123.124843		4.856265
H		-1.747171		-121.818884		6.283215
H		-2.867032		-121.506538		8.411549
H		-0.140743		-126.37799700000001		7.878523
H		0.532856		-125.734769		5.708904
C		-2.918313		-122.990015		10.021477
C		-1.635225		-125.043116		9.630511
C		-2.463387		-124.263851		10.465221
C		-3.772308		-122.212562		10.881748
H		-1.304612		-126.051462		9.978169
C		-2.856379		-124.731494		11.77604
C		-4.130263		-122.688537		12.105859
H		-4.030901		-121.180003		10.511195
C		-3.666368		-123.942751		12.556683
H		-2.424473		-125.739116		12.106503
H		-4.7045		-121.823231		12.680814
H		-3.970269		-124.43315700000001		13.533453
C		-0.505276		-129.65324900000002		5.833035
C		-1.315265		-128.864505		6.613678
C		-1.708258		-129.33214900000002		7.924497
C		-2.536419		-128.552884		8.759207
C		-1.253331		-130.605985		8.368241
C		-0.399336		-131.383438		7.50797
C		-0.041382		-130.907463		6.283859
H		-0.201375		-129.162843		4.856265
H		-1.747171		-127.85688400000001		6.283215
H		-2.867032		-127.54453800000002		8.411549
H		-0.140743		-132.415997		7.878523
H		0.532856		-131.772769		5.708904
C		-2.918313		-129.028015		10.021477
C		-1.635225		-131.081116		9.630511
C		-2.463387		-130.301851		10.465221
C		-3.772308		-128.250562		10.881748
H		-1.304612		-132.08946200000003		9.978169
C		-2.856379		-130.769494		11.77604
C		-4.130263		-128.726537		12.105859
H		-4.030901		-127.21800300000001		10.511195
C		-3.666368		-129.98075100000003		12.556683
H		-2.424473		-131.777116		12.106503
H		-4.7045		-127.86123100000002		12.680814
H		-3.970269		-130.471157		13.533453
C		-0.505276		-135.691249		5.833035
C		-1.315265		-134.902505		6.613678
C		-1.708258		-135.370149		7.924497
C		-2.536419		-134.590884		8.759207
C		-1.253331		-136.643985		8.368241
C		-0.399336		-137.421438		7.50797
C		-0.041382		-136.945463		6.283859
H		-0.201375		-135.200843		4.856265
H		-1.747171		-133.894884		6.283215
H		-2.867032		-133.582538		8.411549
H		-0.140743		-138.453997		7.878523
H		0.532856		-137.810769		5.708904
C		-2.918313		-135.066015		10.021477
C		-1.635225		-137.119116		9.630511
C		-2.463387		-136.33985099999998		10.465221
C		-3.772308		-134.28856199999998		10.881748
H		-1.304612		-138.127462		9.978169
C		-2.856379		-136.807494		11.77604
C		-4.130263		-134.764537		12.105859
H		-4.030901		-133.256003		10.511195
C		-3.666368		-136.018751		12.556683
H		-2.424473		-137.815116		12.106503
H		-4.7045		-133.899231		12.680814
H		-3.970269		-136.509157		13.533453
C		-0.505276		-141.729249		5.833035
C		-1.315265		-140.940505		6.613678
C		-1.708258		-141.408149		7.924497
C		-2.536419		-140.628884		8.759207
C		-1.253331		-142.681985		8.368241
C		-0.399336		-143.459438		7.50797
C		-0.041382		-142.983463		6.283859
H		-0.201375		-141.238843		4.856265
H		-1.747171		-139.932884		6.283215
H		-2.867032		-139.620538		8.411549
H		-0.140743		-144.491997		7.878523
H		0.532856		-143.848769		5.708904
C		-2.918313		-141.104015		10.021477
C		-1.635225		-143.157116		9.630511
C		-2.463387		-142.377851		10.465221
C		-3.772308		-140.326562		10.881748
H		-1.304612		-144.16546200000002		9.978169
C		-2.856379		-142.845494		11.77604
C		-4.130263		-140.802537		12.105859
H		-4.030901		-139.294003		10.511195
C		-3.666368		-142.05675100000002		12.556683
H		-2.424473		-143.853116		12.106503
H		-4.7045		-139.937231		12.680814
H		-3.970269		-142.547157		13.533453
C		-0.505276		-147.76724900000002		5.833035
C		-1.315265		-146.978505		6.613678
C		-1.708258		-147.44614900000002		7.924497
C		-2.536419		-146.666884		8.759207
C		-1.253331		-148.719985		8.368241
C		-0.399336		-149.49743800000002		7.50797
C		-0.041382		-149.021463		6.283859
H		-0.201375		-147.276843		4.856265
H		-1.747171		-145.970884		6.283215
H		-2.867032		-145.65853800000002		8.411549
H		-0.140743		-150.529997		7.878523
H		0.532856		-149.88676900000002		5.708904
C		-2.918313		-147.14201500000001		10.021477
C		-1.635225		-149.195116		9.630511
C		-2.463387		-148.415851		10.465221
C		-3.772308		-146.364562		10.881748
H		-1.304612		-150.20346200000003		9.978169
C		-2.856379		-148.883494		11.77604
C		-4.130263		-146.840537		12.105859
H		-4.030901		-145.33200300000001		10.511195
C		-3.666368		-148.09475100000003		12.556683
H		-2.424473		-149.891116		12.106503
H		-4.7045		-145.975231		12.680814
H		-3.970269		-148.585157		13.533453
C		-0.505276		-153.805249		5.833035
C		-1.315265		-153.016505		6.613678
C		-1.708258		-153.484149		7.924497
C		-2.536419		-152.704884		8.759207
C		-1.253331		-154.757985		8.368241
C		-0.399336		-155.535438		7.50797
C		-0.041382		-155.059463		6.283859
H		-0.201375		-153.314843		4.856265
H		-1.747171		-152.008884		6.283215
H		-2.867032		-151.696538		8.411549
H		-0.140743		-156.567997		7.878523
H		0.532856		-155.924769		5.708904
C		-2.918313		-153.180015		10.021477
C		-1.635225		-155.233116		9.630511
C		-2.463387		-154.453851		10.465221
C		-3.772308		-152.402562		10.881748
H		-1.304612		-156.241462		9.978169
C		-2.856379		-154.921494		11.77604
C		-4.130263		-152.878537		12.105859
H		-4.030901		-151.370003		10.511195
C		-3.666368		-154.132751		12.556683
H		-2.424473		-155.929116		12.106503
H		-4.7045		-152.013231		12.680814
H		-3.970269		-154.623157		13.533453
C		-0.505276		-159.84324900000001		5.833035
C		-1.315265		-159.054505		6.613678
C		-1.708258		-159.522149		7.924497
C		-2.536419		-158.742884		8.759207
C		-1.253331		-160.795985		8.368241
C		-0.399336		-161.573438		7.50797
C		-0.041382		-161.097463		6.283859
H		-0.201375		-159.352843		4.856265
H		-1.747171		-158.046884		6.283215
H		-2.867032		-157.73453800000001		8.411549
H		-0.140743		-162.605997		7.878523
H		0.532856		-161.962769		5.708904
C		-2.918313		-159.218015		10.021477
C		-1.635225		-161.271116		9.630511
C		-2.463387		-160.491851		10.465221
C		-3.772308		-158.440562		10.881748
H		-1.304612		-162.27946200000002		9.978169
C		-2.856379		-160.959494		11.77604
C		-4.130263		-158.916537		12.105859
H		-4.030901		-157.408003		10.511195
C		-3.666368		-160.17075100000002		12.556683
H		-2.424473		-161.967116		12.106503
H		-4.7045		-158.051231		12.680814
H		-3.970269		-160.661157		13.533453
C		-0.505276		-165.88124900000003		5.833035
C		-1.315265		-165.09250500000002		6.613678
C		-1.708258		-165.56014900000002		7.924497
C		-2.536419		-164.78088400000001		8.759207
C		-1.253331		-166.833985		8.368241
C		-0.399336		-167.61143800000002		7.50797
C		-0.041382		-167.13546300000002		6.283859
H		-0.201375		-165.39084300000002		4.856265
H		-1.747171		-164.08488400000002		6.283215
H		-2.867032		-163.77253800000003		8.411549
H		-0.140743		-168.643997		7.878523
H		0.532856		-168.00076900000002		5.708904
C		-2.918313		-165.25601500000002		10.021477
C		-1.635225		-167.30911600000002		9.630511
C		-2.463387		-166.529851		10.465221
C		-3.772308		-164.478562		10.881748
H		-1.304612		-168.31746200000003		9.978169
C		-2.856379		-166.99749400000002		11.77604
C		-4.130263		-164.95453700000002		12.105859
H		-4.030901		-163.44600300000002		10.511195
C		-3.666368		-166.20875100000003		12.556683
H		-2.424473		-168.00511600000002		12.106503
H		-4.7045		-164.089231		12.680814
H		-3.970269		-166.699157		13.533453
C		-0.505276		-171.919249		5.833035
C		-1.315265		-171.130505		6.613678
C		-1.708258		-171.598149		7.924497
C		-2.536419		-170.818884		8.759207
C		-1.253331		-172.871985		8.368241
C		-0.399336		-173.649438		7.50797
C		-0.041382		-173.173463		6.283859
H		-0.201375		-171.428843		4.856265
H		-1.747171		-170.122884		6.283215
H		-2.867032		-169.810538		8.411549
H		-0.140743		-174.681997		7.878523
H		0.532856		-174.038769		5.708904
C		-2.918313		-171.294015		10.021477
C		-1.635225		-173.347116		9.630511
C		-2.463387		-172.567851		10.465221
C		-3.772308		-170.516562		10.881748
H		-1.304612		-174.35546200000002		9.978169
C		-2.856379		-173.035494		11.77604
C		-4.130263		-170.992537		12.105859
H		-4.030901		-169.484003		10.511195
C		-3.666368		-172.24675100000002		12.556683
H		-2.424473		-174.043116		12.106503
H		-4.7045		-170.127231		12.680814
H		-3.970269		-172.737157		13.533453
