         339
  Built with Packmol                                             
  H           12.827738        1.942834        7.552376
  H           14.335724        2.245720        8.101078
  O           13.550008        2.631468        7.617377
  H            3.564285        6.516724        0.572718
  H            2.651830        5.291784       -0.005023
  O            2.631018        6.216468        0.375299
  H            2.375630        5.424328       14.255524
  H            3.393142        4.242079       14.739044
  O            2.432959        4.493781       14.617341
  H            8.213968       12.591938        5.336138
  H            9.819697       12.878819        5.257575
  O            8.986132       13.041092        5.785738
  H            9.840538        4.811880        7.505631
  H            9.536470        3.616718        6.435133
  O            9.999540        4.492577        6.571350
  H            6.184256        7.072503        0.611965
  H            6.179754        8.637213        1.079403
  O            5.686248        7.768814        1.128931
  H            4.227718       10.868396        0.894230
  H            4.818415       12.384743        0.757831
  O            4.517780       11.680340        1.400912
  H            2.919780       11.254988        8.486063
  H            3.382916       12.334634        7.351732
  O            3.693857       11.767885        8.114772
  H           12.402426        6.856688        9.460190
  H           11.528724        5.912061        8.454624
  O           11.998860        5.950077        9.336466
  H            9.068398        1.419886        7.278973
  H            7.604045        2.019393        6.875120
  O            8.113951        1.186935        7.092206
  H           14.559618       10.941224       12.083096
  H           14.665193       10.221188       10.621166
  O           15.034743       10.240918       11.550231
  H            1.063834        2.591015        8.406963
  H            1.318960        3.460730        7.048529
  O            1.584844        2.640275        7.554767
  H            7.888015       13.054623       12.252609
  H            8.574461       11.574283       12.317580
  O            8.728849       12.536834       12.094470
  H            1.167564       13.226954       14.344333
  H            1.894739       14.657262       14.040568
  O            1.586297       13.796010       13.636552
  H            7.526767       12.279752        9.902153
  H            5.919483       12.428169       10.150035
  O            6.774890       12.928985       10.017449
  H           10.704475        9.320785        4.331817
  H           12.063153        8.416232        4.382950
  O           11.063796        8.387888        4.358449
  H           13.860931       12.533400        8.911410
  H           14.991396       12.904210       10.030063
  O           14.439951       12.166856        9.639762
  H            9.712830        1.851915       11.022874
  H            9.133787        2.088195        9.514327
  O            9.392717        1.398716       10.190855
  H           -0.022687        3.537987        5.002808
  H            0.017054        1.938356        4.676559
  O            0.138747        2.629683        5.388863
  H           10.821846        2.729412        4.740705
  H           10.973749        1.115081        4.546550
  O           11.472640        1.974497        4.658932
  H           11.522382        8.940020        9.419145
  H            9.916022        9.150837        9.624085
  O           10.700766        9.369303        9.043940
  H            2.747400       11.298827        4.094562
  H            3.673360       12.489852        4.719780
  O            3.579414       11.500107        4.611627
  H            4.763616        1.498303        1.216336
  H            6.162501        2.069146        0.596583
  O            5.742548        1.322285        1.112292
  H            0.509905       11.225782       12.400807
  H            2.119521       10.953086       12.360703
  O            1.411858       11.657422       12.417641
  H            9.627390        7.801295        6.796513
  H            8.651469        6.952607        5.799447
  O            8.739756        7.791956        6.335932
  H            2.558060        3.692357       12.118903
  H            3.278400        2.882791       10.897203
  O            2.565153        3.544029       11.129931
  H           10.570407       10.133175       12.402699
  H            9.678686        8.782143       12.618060
  O            9.850626        9.559057       12.012289
  H            1.552895        5.636925       11.149729
  H           -0.013405        5.177125       11.195830
  O            0.895089        4.947343       10.846606
  H           10.095163        6.302709        2.671343
  H            9.036825        5.874469        3.838977
  O            9.486702        5.578604        2.996248
  H           14.748395       11.840477        7.018924
  H           14.952361       13.377810        6.507220
  O           15.093803       12.414991        6.276803
  H            2.812881        6.781396        3.355770
  H            3.803405        5.527865        3.017598
  O            3.057977        6.096467        2.669536
  H           14.372846       10.621871        4.207988
  H           13.430513       11.522393        5.191809
  O           14.160206       11.551682        4.508575
  H            6.736443        7.588126       13.972307
  H            6.549248        9.207020       14.077068
  O            6.073021        8.336234       13.954362
  H            5.449975       13.972702        8.028133
  H            4.630255       14.784343        9.184045
  O            4.682984       13.929097        8.668397
  H           12.763498       13.382898        6.463156
  H           12.136761       14.560832        7.404702
  O           12.963105       14.040052        7.190082
  H           12.209281        6.216766       12.943611
  H           12.239130        4.763908       12.198528
  O           11.660524        5.538099       12.455356
  H            8.329006        3.170674        1.798265
  H            9.240193        2.278819        2.818642
  O            9.233040        2.769977        1.947533
  H            8.872465       12.911073        8.080233
  H            7.373091       12.496173        7.583671
  O            8.313359       12.175301        7.697929
  H            6.743757        9.259453        7.200371
  H            6.536501       10.577045        8.142619
  O            7.210259       10.009650        7.669090
  H           13.838174        0.622472        3.324964
  H           12.998450        0.000270        2.070148
  O           13.883295        0.009508        2.536068
  H            5.370803        9.723440        5.416956
  H            4.769297       10.193466        6.860598
  O            5.302566       10.481844        6.065249
  H            6.859319        4.101579        8.505726
  H            5.618355        5.155172        8.635291
  O            6.178761        4.489101        9.127645
  H            1.230658        9.109259        6.268751
  H            2.660227        9.839982        5.970066
  O            1.690985        9.990959        6.164734
  H            2.356529       14.998807        6.915007
  H            2.533629       14.138965        8.292012
  O            2.934428       14.853170        7.718088
  H           12.329753       12.278911        3.415805
  H           11.018019       11.306191        3.418242
  O           12.017822       11.328754        3.419873
  H            8.799507       14.079790       10.527546
  H            7.513510       14.998917       10.117359
  O            8.496492       15.005584       10.301262
  H           10.216681       14.808221        6.253837
  H           11.554597       14.865098        5.319182
  O           10.568696       15.030837        5.344638
  H           11.469820        4.092585       14.836391
  H           11.429149        5.722135       14.935138
  O           10.886775        4.885580       15.013405
  H           10.668816       13.542421        0.738495
  H           10.683034       15.013328        0.029223
  O           10.111070       14.334285        0.489523
  H            0.766170       11.150799        7.847354
  H            0.057720       11.973277        6.627327
  O            0.588053       12.059950        7.470744
  H           13.546016       10.723724       14.264725
  H           12.939604        9.335053       14.873571
  O           12.821151       10.327027       14.828035
  H           14.828449       13.533674        2.101069
  H           14.886293       11.937524        2.441356
  O           14.280433       12.718001        2.286733
  H           11.903672       14.351522       11.624303
  H           13.509154       14.599278       11.457331
  O           12.654427       14.987976       11.801531
  H            0.297835        5.481233        6.341786
  H            0.338717        6.603641        5.156306
  O           -0.001345        5.698788        5.412659
  H            4.741745       10.124095        9.823191
  H            6.206629        9.423957        9.998570
  O            5.221321        9.257246        9.959927
  H            4.544502       11.465556       12.573187
  H            5.786386       12.519153       12.452795
  O            5.530736       11.552543       12.432148
  H            9.277821       12.724961        2.653746
  H            9.037348       11.222407        2.061007
  O            8.589877       12.029177        2.447024
  H            0.311935       14.021211        8.429283
  H            0.269470       14.221323        6.809101
  O           -0.005683       14.612069        7.687581
  H           -0.004079        4.499174        2.466470
  H            1.441556        4.675771        1.727695
  O            0.549815        4.225612        1.680034
  H            9.450512        9.818478       15.001840
  H            8.452713        8.526136       15.034805
  O            9.371683        8.842383       14.799007
  H            5.952470        5.199677       14.381224
  H            6.344132        4.395740       13.014797
  O            5.668307        4.994637       13.444567
  H            4.392566        2.407728        7.748263
  H            4.582244        3.106365        6.284444
  O            3.914167        2.769954        6.948236
  H           11.538265        7.997112       11.425115
  H           12.796488        8.909844       11.925745
  O           12.507432        7.986835       11.671544
  H           14.372707        2.657056        2.676662
  H           14.297163        4.263529        2.960163
  O           14.905249        3.471298        2.908016
  H           13.708710        8.879048        2.990398
  H           13.117976       10.045083        2.011506
  O           13.203845        9.057816        2.145845
  H           13.350544        2.081779       10.981134
  H           13.464765        1.888817       12.598711
  O           12.833676        2.028528       11.835609
  H           12.329935        9.804502        7.101997
  H           13.829514        9.359174        6.633185
  O           13.260569       10.126823        6.928372
  H           14.322900        7.314923       12.768658
  H           14.899784        6.141211       13.746637
  O           14.830760        6.453959       12.799250
  H           15.009322       15.006326        9.388230
  H           13.385617       14.991920        9.214423
  O           14.252477       14.696724        8.812515
  H            1.661543       12.455133        2.207967
  H            3.119303       13.191172        2.212461
  O            2.130170       13.338591        2.210797
  H           -0.069564        9.574603       13.713334
  H            0.890481        8.392544       14.303154
  O            0.867756        9.228415       13.754592
  H            3.001094        7.865850        7.894909
  H            3.083103        6.693714        6.760798
  O            3.528913        7.512619        7.122412
  H           12.225218        5.547712        2.611475
  H           12.134127        4.699482        4.003971
  O           12.064345        5.610111        3.596535
  H            5.768627        6.730906       10.164845
  H            6.523271        6.662193       11.611436
  O            6.253265        7.263159       10.859071
  H            9.834032       -0.002327       12.200698
  H            9.887814        0.262759       13.811187
  O            9.675063        0.670603       12.923201
  H            8.397609        6.233464        0.171285
  H            9.340008        4.928413        0.446169
  O            8.921815        5.735846        0.862444
  H            9.683124       11.722242       -0.010220
  H            8.556621       12.904532       -0.005914
  O            8.701834       11.915076       -0.008683
  H           14.579664        6.246059        8.890144
  H           13.660791        5.104761        8.169071
  O           14.593182        5.361565        8.423662
  H            7.071183       10.443017        0.062626
  H            6.815651       11.542594        1.242655
  O            6.404187       10.797029        0.718299
  H           12.515052       13.061010       14.204495
  H           13.945874       13.119727       14.989437
  O           13.023999       12.732236       15.000105
  H            1.750931       14.110201        4.496062
  H            3.266752       14.654761        4.765468
  O            2.337030       14.920390        4.510172
  H            2.353881        9.715156        0.872784
  H            1.555147        8.767061        1.935788
  O            1.589094        9.674042        1.515844
  H           12.453859       12.478428       10.570622
  H           12.463644       11.638202       11.970893
  O           12.775869       11.645530       11.020851
  H           10.204622       14.948457        3.184985
  H           11.746959       14.412371        3.159619
  O           10.823571       14.259752        2.807226
  H            4.316286        0.386369        4.032329
  H            4.768306        0.010071        5.555784
  O            3.997921        0.052186        4.919505
  H            4.778615       10.124044        3.233201
  H            4.069759        8.659085        3.098093
  O            4.944317        9.141268        3.150686
  H            3.992708        5.760493       11.048318
  H            3.581860        6.862896        9.915734
  O            3.735622        5.890329       10.090630
  H            1.607089        2.302749        1.520795
  H            1.890220        1.045691        2.524029
  O            1.192438        1.522723        1.989559
  H            5.468348        7.333859        5.051599
  H            5.715283        6.123630        3.983328
  O            5.042179        6.768741        4.345102
  H           14.097781       15.016924        0.633167
  H           12.926871       13.880549        0.566380
  O           13.834379       14.138360        0.234594
  H            2.618684       13.793118       10.766665
  H            3.854464       12.728746       10.849098
  O            2.877517       12.860295       11.017588
  H            7.962797        3.875612        4.153829
  H            6.516436        3.289959        3.672283
  O            7.460829        3.049667        3.897002
  H           14.877150        2.826275        5.742924
  H           14.592675        1.246659        6.044123
  O           14.322811        2.033565        5.489082
  H            2.907862        4.183731        4.509903
  H            2.213543        2.714149        4.668286
  O            2.173561        3.671313        4.955263
  H            1.384988       10.855507       10.195048
  H            0.940127       12.356555        9.730520
  O            0.612453       11.481148       10.086061
  H            7.340975        7.735026        3.473878
  H            8.591245        8.780103        3.366760
  O            8.200656        7.934229        3.003365
  H            7.237698        4.580061        6.391517
  H            6.451096        5.987362        6.651516
  O            6.343451        4.998138        6.551676
  H            6.638336        0.719707        4.260570
  H            8.243575        0.650500        4.552551
  O            7.375122        1.044488        4.853681
  H           10.363308        4.145436       11.230290
  H           10.299981        4.475244        9.632149
  O           10.510130        3.773979       10.313458
  H            9.343063        5.403286       13.547824
  H            8.848215        6.956611       13.643453
  O            9.619900        6.335554       13.780964
  H            1.306055        7.981383       10.316000
  H            1.133318        8.994069       11.585435
  O            0.884452        8.099030       11.215181
  H           11.372955        1.469078        2.272552
  H           11.378506        3.087674        2.489233
  O           11.936747        2.258358        2.516050
  H           13.689461        8.628372        9.473250
  H           15.001268        8.559968        8.503033
  O           14.028268        8.341149        8.577243
  H            6.569258        4.736124        0.727766
  H            5.490797        4.149589        1.804675
  O            5.910717        4.980552        1.439591
  H            8.076309        7.714317        8.662002
  H            7.569660        6.167841        8.798214
  O            8.371764        6.761516        8.732659
  H            0.550852       11.156883        3.593012
  H            0.350757        9.722881        4.348283
  O           -0.007553       10.651456        4.250921
  H            0.995388       11.108564       14.899288
  H            2.568708       11.531885       15.010194
  O            1.935786       10.768997       14.877796
  H            4.827332       10.265352       14.488326
  H            4.082192        8.851318       14.823152
  O            4.002247        9.847149       14.868401
  H           10.809508        6.151822        5.349817
  H           12.083402        6.297131        6.361210
  O           11.378884        6.797918        5.858234
  H            9.821563       10.556624        7.231601
  H            8.730876       10.397173        6.026688
  O            9.667186       10.668512        6.249886
  H            3.958940        9.451108       11.762380
  H            5.548901        9.407415       12.132451
  O            4.712057        8.864599       12.060606
  H            9.520157        7.175887       10.798368
  H            8.557077        5.901267       11.136977
  O            9.393904        6.191805       10.672837
  H           11.232417       11.886501        8.838360
  H           10.947679       12.599896        7.397239
  O           11.378785       12.711668        8.292657
