          15
  Built with Packmol                                             
  H            4.996506        0.753626       -0.053724
  H            5.007026        2.386306       -0.020819
  O            4.424375        1.573608       -0.033431
  H            2.464420        4.725680        5.084936
  H            4.024062        4.258159        4.959328
  O            3.390486        5.024798        4.854620
  H            2.566559        2.922780        2.332209
  H            1.089925        2.514729        2.897789
  O            1.740350        2.390126        2.148430
  H            3.718745       -0.070651        3.056521
  H            3.871064        0.149201        4.667514
  O            3.221186        0.009910        3.920270
  H            1.328896        4.953150        0.035626
  H           -0.096291        4.156094        0.055150
  O            0.337636        5.050459       -0.054105
