198

H          6.73571        6.89679        9.99398
H          6.26235        5.33467        9.94354
O          7.05132        5.94919        9.94337
H          8.48559        3.26166        7.86720
H          9.35211        3.89237        6.63506
O          8.57694        4.04231        7.24885
H          1.05500        1.39609        8.34398
H          0.41627        2.87788        8.59530
O          0.55284        2.15105        7.92210
H          6.36898        9.99720        4.56125
H          5.51157        9.70878        5.92084
O          5.72161        9.37514        5.00177
H          9.21260        6.01199        9.84197
H          9.98495        4.58097        9.99192
O         10.00050        5.47402        9.54210
H          4.53848        5.96330        4.88056
H          4.06925        6.39846        3.37813
O          4.68688        6.61293        4.13486
H          8.19472        9.98696        6.80254
H          9.35326        9.96152        5.65190
O          8.42460        9.67050        5.88215
H          8.63829        1.69218        3.87497
H          7.09321        2.12604        3.57278
O          8.04995        2.29442        3.33527
H          2.73808        5.27276        6.99820
H          3.40687        4.74522        8.39149
O          2.56123        4.79758        7.86020
H          4.97987        1.99130        0.01811
H          3.70101        1.33014        0.78896
O          3.99405        2.06019        0.17150
H          9.49886        8.46482        9.41322
H          9.65237       10.00066        8.87984
O         10.00173        9.06758        8.79361
H          2.41686        7.88530        3.63570
H          2.54038        8.48150        2.12040
O          1.92601        8.04790        2.77969
H          6.05412        0.59991        1.27086
H          7.28211        0.79600        0.21235
O          6.89119        1.11164        1.07703
H          3.22021        0.42666        4.74230
H          3.06221        1.04144        3.23767
O          3.35171        0.24441        3.76782
H          9.92414        5.99901        4.18125
H          9.10062        6.89128        5.27327
O         10.00701        6.68434        4.90483
H          4.45504        2.53709        7.90627
H          2.86954        2.61495        7.52288
O          3.71457        2.09429        7.40054
H          7.68795        6.81385        7.68232
H          7.12620        6.81067        6.14894
O          7.72957        6.34785        6.79845
H          9.10069        2.66777        0.39908
H          8.72377        4.20707        0.79319
O          8.38478        3.36554        0.37245
H          8.13749        1.02110        8.79486
H          9.49949        0.45109        8.09710
O          8.58282        0.81159        7.92428
H          2.61539        7.54024        9.68783
H          1.88280        6.08223        9.62195
O          1.73584        7.06588        9.72655
H          3.31228        9.97728        7.92223
H          3.17636        9.25628        6.46329
O          3.62391        9.99177        6.97208
H          8.70852        6.60799        2.07318
H          9.98001        7.62229        2.21913
O          9.70315        6.66306        2.16142
H          8.03211        9.51279        2.59527
H          6.68053        8.61397        2.41591
O          7.04543        9.54487        2.43547
H          4.91646        6.37252        8.57593
H          5.21253        7.97646        8.65697
O          4.49721        7.28022        8.59618
H          0.16776        9.84277        0.65260
H          0.00146        8.21958        0.71928
O          0.57576        8.99323        0.98717
H          1.89300        5.77385        0.37624
H          3.38645        6.36310        0.67495
O          2.47870        6.58229        0.31709
H          7.31105        4.98494        3.68698
H          8.21157        4.88456        5.04558
O          8.20791        4.74077        4.05592
H          5.45295        6.07299        1.71801
H          6.90959        5.35229        1.55785
O          5.96727        5.22874        1.86913
H          5.13627        2.11498        5.72187
H          6.75656        1.95882        5.85270
O          5.94579        2.40388        6.23308
H          0.73479        2.87926        0.66556
H          0.00072        2.43668        2.05556
O          0.87350        2.68885        1.63748
H          1.68809        7.67086        6.25751
H          0.87632        6.46135        6.99572
O          1.06569        7.44326        7.00647
H          2.82384        4.58215        4.77059
H          2.06391        5.57408        3.71920
O          1.97724        4.73844        4.26170
H          3.77215        4.30933        0.15490
H          5.38164        4.47598       -0.06554
O          4.67417        4.09397        0.52917
H        -10.89671        9.30221        1.71753
O        -10.48871        8.45261        2.05213
O         -4.01911        9.00431        3.50043
H         -4.69551        9.45661        5.62613
O         -7.44061        9.45121        8.03703
H         -3.03241        8.97221        3.66023
O         -5.34291        8.83451        6.06673
H         -1.71121        9.42091        6.71683
H         -7.75221        9.43671        8.98713
H         -5.55291        9.16821        6.98573
O         -2.63991        9.12991        6.94703
H        -11.06301        7.67901        1.78423
H         -2.86981        9.44641        7.86743
H         -8.52411        7.94091        3.18533
H         -7.88811        8.71571        7.52823
H         -4.38401        8.07341        3.48083
O         -9.13851        7.50731        3.84463
H         -1.41211        9.46011        9.94473
H         -8.64761        7.34471        4.70063
O         -1.06281        8.52701        9.85853
O         -8.58581        6.04171        1.38203
H         -1.08451        7.08171        3.28403
H         -9.37641        7.13031        7.32243
O         -9.99881        6.90271        8.07143
H         -7.67811        5.82251        1.73993
H         -1.56561        7.92421       10.47813
H         -5.85201        7.43591        9.72193
O         -1.36131        6.12251        3.22633
O         -6.37761        6.07231        5.19983
H         -2.35601        6.06741        3.13813
H         -9.17151        5.23321        1.44113
O         -6.56731        6.73961        9.66113
H         -6.99531        5.85791        4.44303
H         -8.44911        6.99961       10.75273
H         -5.61151        5.53241        2.78293
O         -1.05751        6.14371        5.96973
H         -1.96391        6.35071        6.33823
O         -9.32871        6.52531       10.79143
H         -3.93831        6.27011        7.21383
H        -10.18821        5.92081        8.06063
H         -3.37651        6.27331        8.74723
H         -9.00061        5.03351        4.78413
H         -6.52601        5.42271        5.94553
O         -3.33491        5.80731        7.86333
O         -5.09721        4.68811        2.93403
H         -4.15491        4.81171        2.62283
H         -1.14041        5.45841        5.24623
H         -4.32881        6.35621       11.05893
H         -6.14801        5.83191        9.64083
H         -5.68291        3.93541        0.99943
H         -7.29241        3.76871        1.21983
H         -9.18171        5.54161       10.68693
O         -9.08731        4.19781        5.32663
O         -6.39031        3.55341        1.59413
H         -3.75351        4.44431        4.75193
O         -4.01321        5.40861       11.00833
H         -8.32641        4.73221        8.06313
O         -2.85661        4.20021        5.12083
H         -2.34071        3.66651        1.85813
H         -8.24071        4.04161        5.83553
H         -1.85191        5.47141       10.90693
H         -2.85291        4.34401        6.11053
O         -8.50331        4.25701        8.92513
O         -1.06401        4.93341       10.60703
O         -2.67971        2.82491        1.43733
H         -4.80221        4.79411       11.00843
H         -7.65761        4.20461        9.45643
H        -10.32971        2.33871        1.73053
O        -10.19101        2.14821        2.70243
O         -2.48761        3.50171        8.31373
H        -11.06381        1.89611        3.12053
O         -7.07041        1.51961        1.23643
H         -1.96381        2.12721        1.46403
H         -1.71241        3.35181        7.70003
H         -1.07961        4.04041       11.05683
H         -6.08461        1.45071        1.08303
O         -3.01461        1.75381        4.40023
H        -10.64821        2.33731        9.66023
H         -2.57891        2.72111        8.93213
O         -5.11871        1.86331        7.29803
H         -3.97131        1.58541        4.63773
H         -7.36351        0.78951        1.85393
H         -8.19501        2.07431        8.58783
O        -10.51171        1.61051        8.98703
O         -4.17331        0.57101        2.14193
H         -6.60951        1.99651        8.97123
H         -5.92821        1.57441        6.78683
O         -7.34991        1.55371        8.46543
H         -2.42621        1.15161        4.93993
H         -4.30791        1.41821        6.91763
H         -3.78241        0.25541        1.27733
H         -8.00231        0.50081        4.30263
H         -5.01041        0.05931        2.33583
H        -10.00951        0.85551        9.40893
O         -7.71281       -0.29619        4.83273
H         -7.84431       -0.11389        5.80723
O         -2.48171        0.27101        8.98923
H         -2.92701        0.48051        9.85983
H         -1.56501       -0.08949        9.16203
